LTspice 24.1.9 for Windows
Circuit: C:\Users\bighn\Documents\VCCS assignment\schematic.net
Start Time: Sun Nov  2 18:14:40 2025
solver = Normal
Maximum thread count: 16
tnom = 27
temp = 27
method = trap
C:\Users\bighn\Documents\VCCS assignment\schematic.net(9): WARNING: Specified period is not longer than the sum of Trise, Tfall, and Ton. Increasing period to 0.005002.

Vin Vin 0 PULSE(0 5 0 1u 1u 5m 5m)
^^^^^^^^^^^^^^^^^^^^^^^^^^^^^^^^^^
Direct Newton iteration failed to find .op point.  (Use ".option noopiter" to skip.)
Starting Gmin stepping
Gmin = 10
Gmin = 1.07374
Gmin = 0.115292
Gmin = 0.0123794
Gmin = 0.00132923
Gmin = 0.000142725
Gmin = 1.5325e-05
Gmin = 1.6455e-06
Gmin = 1.76685e-07
Gmin = 1.89714e-08
Gmin = 2.03704e-09
Gmin = 2.18725e-10
Gmin = 2.34854e-11
Gmin = 2.52173e-12
Gmin = 2.70769e-13
Gmin = 0
Gmin stepping succeeded in finding the operating point.

Total elapsed time: 0.681 seconds.

Files loaded:
C:\Users\bighn\Documents\VCCS assignment\schematic.net
C:\Users\bighn\AppData\Local\LTspice\lib\cmp\standard.mos
C:\Users\bighn\AppData\Local\LTspice\lib\sub\UniversalOpAmp2.lib

iavg: AVG(I(Rsense))=0.00499906843738 FROM 0.1 TO 0.2
imax: MAX(I(Rsense))=0.00499926460907 FROM 0.1 TO 0.2
imin: MIN(I(Rsense))=0.00499865179881 FROM 0.1 TO 0.2
ipp: 'Imax - Imin'=6.12810254097e-07
irms: RMS(I(Rsense))=0.00499906843785 FROM 0.1 TO 0.2
vavg: AVG(V(Vctrl))=4.99906986842 FROM 0.1 TO 0.2
